Version 4.1
SHEET 1 880 680
WIRE 448 80 304 80
WIRE 576 80 512 80
WIRE -16 96 -288 96
WIRE 112 96 64 96
WIRE 304 96 304 80
WIRE 304 96 192 96
WIRE 576 96 576 80
WIRE 32 176 -288 176
WIRE 112 176 32 176
WIRE 304 176 192 176
WIRE 304 208 304 176
WIRE 576 208 576 176
WIRE 32 288 32 256
FLAG 576 208 0
FLAG 304 208 0
FLAG 32 288 0
SYMBOL voltage -288 80 R0
WINDOW 0 35 50 Left 2
WINDOW 3 -36 116 Left 2
WINDOW 123 0 0 Left 0
WINDOW 39 0 0 Left 0
SYMATTR InstName V1
SYMATTR Value SINE(0 325 50)
SYMBOL res 288 80 R0
SYMATTR InstName R2
SYMATTR Value 1k
SYMBOL cap 512 64 R90
WINDOW 0 0 32 VBottom 2
WINDOW 3 32 32 VTop 2
SYMATTR InstName C1
SYMATTR Value 10n
SYMBOL res 560 80 R0
SYMATTR InstName R3
SYMATTR Value 10Meg
SYMBOL res 80 80 R90
WINDOW 0 0 56 VBottom 2
WINDOW 3 32 56 VTop 2
SYMATTR InstName R1
SYMATTR Value 200k
SYMBOL ind 96 80 R0
WINDOW 0 7 6 Left 2
WINDOW 3 11 107 Left 2
SYMATTR InstName L1
SYMATTR Value 0.6
SYMATTR SpiceLine Rser=120 Rpar=112k
SYMBOL ind 208 80 M0
SYMATTR InstName L2
SYMATTR Value 0.6
SYMATTR SpiceLine Rser=120 Rpar=112k
SYMBOL res 16 160 R0
SYMATTR InstName R4
SYMATTR Value 1Meg
TEXT 120 296 Left 2 !K L1 L2 1
TEXT -232 304 Left 2 !.tran 100ms
